finish
/clear
/title,Convergence Study

/prep7
!geometrie
rectng,-0.8,0.3,-0.5,0.5
rectng,-0.8,0.1,-0.5,0.3

asba,1,2


et,1,plane42

keyopt,1,3,0
keyopt,1,5,2


mp,ex,1,1000
mp,prxy,1,0
mp,dens,1,1e4
!vernetzen
esize,0.05
MSHAPE,0,2D
MSHKEY,0
AMESH,3

/SOLU

ANTYPE,0
!dl,10,,ux,0
!dl,9,,uy,0
dl,10,,ux,0
dl,10,,uy,0

!sfl,7,pres,1e10
!sfl,6,pres,1e10

! Neumann BC
nsel,s,loc,y,0.1

F,all,FY,1e6
nsel,all


solve
/post1


