! Header
FINISH
/CLEAR
/TITLE, W¨¹rfel

! PARAMETER

*SET,HDIV,1
*SET,VDIV,1 

!------------------
!---Preprocessor---
!------------------

/prep7

! GEOMETRIE

RECTNG,0,50,0,50

! ELEMENTDEF.

ET,1,PLANE82


! REAL CONST.
R,1,50         ! Dicke


! MATERIAL
MPTEMP, , , , , , , ,
MPTEMP,1,0
MPDATA,EX,1,,210000
MPDATA,PRXY,1,,0.3

MP,EX,1,210000
MP,PRXY,1,0.3

! ELEMENTATTR.
TYPE,   1   !elementtype
MAT,    1   !mat.	 
REAL,   1   !real const. Set 

! VERNETZEN

LESIZE, 1, , , HDIV
LESIZE, 3, , , HDIV
LESIZE, 2, , , VDIV 
LESIZE, 4, , , VDIV 

MSHAPE,0,2D   ! Quads=0/tets=1
MSHKEY,1      ! mapped mesh

AMESH,1

!------------------
!---Solver---------
!------------------

/SOLU

ANTYPE,0    !Statische Analyse


! Randbedingungen:

! Dirichlet BC 
DL,1, , ALL,0

! Neumann BC
NSEL,S,LOC,Y,50
F,ALL,FY,-10000
NSEL,ALL

SOLVE

!------------------
!--Postprocessing--
!------------------

/POST1

!EPLOT

!PATH,Mitte,2,30,30,  ! def. von pfad
!PPATH, 1, , 25,0,0
!PPATH, 2, ,25,25,0
  
!PDEF,versch_Y,U,Y   ! auf Pfad mappen

!PRPATH,versch_Y

/EFACET, 2