! Header
FINISH
/CLEAR
/TITLE, W¨¹rfel

! PARAMETER

*SET,HDIV,1
*SET,VDIV,1

!------------------
!---Preprocessor---
!------------------

/prep7

! GEOMETRIE

BLOCK,0,50,0,50,0,50

! ELEMENTDEF.

ET,1,SOLID45

KEYOPT,1,1,0


KEYOPT,1,5,2


! REAL CONST.
R,1,50         ! Dicke


! MATERIAL
MPTEMP, , , , , , , ,
MPTEMP,1,0
MPDATA,EX,1,,210000
MPDATA,PRXY,1,,0.3

MP,EX,1,210000
MP,PRXY,1,0.3

! ELEMENTATTR.
TYPE,   1   !elementtype
MAT,    1   !mat.	 
REAL,   1   !real const. Set 

! VERNETZEN

LESIZE,ALL,,,HDIV

MSHAPE,1,3D   ! Quads=0/tets=1
MSHKEY,0      ! mapped mesh

VMESH,1

!------------------
!---Solver---------
!------------------

/SOLU

ANTYPE,0    !Statische Analyse


! Randbedingungen:

! Dirichlet BC 
DL,1, , ALL,0

! Neumann BC
NSEL,S,LOC,Y,50
F,ALL,FY,-10000
NSEL,ALL

SOLVE

!------------------
!--Postprocessing--
!------------------

/POST1

EPLOT

/EFACET,2